Circuit: * E:\Users\MrBigBear\My Documents\GitHub\Matlab\Ian\BPFAnalog\bpf.asc

Direct Newton iteration for .op point succeeded.

Date: Sun Aug 02 23:56:23 2015
Total elapsed time: 0.012 seconds.

tnom = 27
temp = 27
method = trap
totiter = 41
traniter = 0
tranpoints = 0
accept = 0
rejected = 0
matrix size = 18
fillins = 13
solver = Normal
Matrix Compiler1:      84 opcodes
Matrix Compiler2:     143 opcodes

