Circuit: * E:\Downloads\Draft1.asc

WARNING: Node N003 is floating.

Direct Newton iteration for .op point succeeded.

Date: Sun Aug 02 22:45:52 2015
Total elapsed time: 0.009 seconds.

tnom = 27
temp = 27
method = trap
totiter = 3
traniter = 0
tranpoints = 0
accept = 0
rejected = 0
matrix size = 12
fillins = 2
solver = Normal
Matrix Compiler1:      37 opcodes
Matrix Compiler2: 950 bytes object code size

